version 2
run General-0-20200528-01:23:39-4696
attr configname General
attr datetime 20200528-01:23:39
attr experiment General
attr inifile omnetpp.ini
attr iterationvars ""
attr iterationvarsf ""
attr measurement ""
attr network Network
attr processid 4696
attr repetition 0
attr replication #0
attr resultdir results
attr runnumber 0
attr seedset 0
param Network.node[0].app.interArrivalTime exponential(7)
param Network.node[0].app.packetByteSize 125000
param Network.node[0].app.destination 5
param Network.node[2].app.interArrivalTime exponential(7)
param Network.node[2].app.packetByteSize 125000
param Network.node[2].app.destination 5

vector 0 Network.node[0].app Delay ETV
vector 1 Network.node[0].app "Hop Count" ETV
vector 2 Network.node[0].app "Source Node" ETV
vector 3 Network.node[0].net PaquetesProcesados ETV
vector 4 Network.node[0].lnk[0] "Buffer Size" ETV
vector 5 Network.node[0].lnk[1] "Buffer Size" ETV
vector 6 Network.node[1].app Delay ETV
vector 7 Network.node[1].app "Hop Count" ETV
vector 8 Network.node[1].app "Source Node" ETV
vector 9 Network.node[1].net PaquetesProcesados ETV
vector 10 Network.node[1].lnk[0] "Buffer Size" ETV
vector 11 Network.node[1].lnk[1] "Buffer Size" ETV
vector 12 Network.node[2].app Delay ETV
vector 13 Network.node[2].app "Hop Count" ETV
vector 14 Network.node[2].app "Source Node" ETV
vector 15 Network.node[2].net PaquetesProcesados ETV
vector 16 Network.node[2].lnk[0] "Buffer Size" ETV
vector 17 Network.node[2].lnk[1] "Buffer Size" ETV
vector 18 Network.node[3].app Delay ETV
vector 19 Network.node[3].app "Hop Count" ETV
vector 20 Network.node[3].app "Source Node" ETV
vector 21 Network.node[3].net PaquetesProcesados ETV
vector 22 Network.node[3].lnk[0] "Buffer Size" ETV
vector 23 Network.node[3].lnk[1] "Buffer Size" ETV
vector 24 Network.node[4].app Delay ETV
vector 25 Network.node[4].app "Hop Count" ETV
vector 26 Network.node[4].app "Source Node" ETV
vector 27 Network.node[4].net PaquetesProcesados ETV
vector 28 Network.node[4].lnk[0] "Buffer Size" ETV
vector 29 Network.node[4].lnk[1] "Buffer Size" ETV
vector 30 Network.node[5].app Delay ETV
vector 31 Network.node[5].app "Hop Count" ETV
vector 32 Network.node[5].app "Source Node" ETV
vector 33 Network.node[5].net PaquetesProcesados ETV
vector 34 Network.node[5].lnk[0] "Buffer Size" ETV
vector 35 Network.node[5].lnk[1] "Buffer Size" ETV
vector 36 Network.node[6].app Delay ETV
vector 37 Network.node[6].app "Hop Count" ETV
vector 38 Network.node[6].app "Source Node" ETV
vector 39 Network.node[6].net PaquetesProcesados ETV
vector 40 Network.node[6].lnk[0] "Buffer Size" ETV
vector 41 Network.node[6].lnk[1] "Buffer Size" ETV
vector 42 Network.node[7].app Delay ETV
vector 43 Network.node[7].app "Hop Count" ETV
vector 44 Network.node[7].app "Source Node" ETV
vector 45 Network.node[7].net PaquetesProcesados ETV
vector 46 Network.node[7].lnk[0] "Buffer Size" ETV
vector 47 Network.node[7].lnk[1] "Buffer Size" ETV
0	0	0	0
1	0	0	0
2	0	0	0
3	0	0	0
3	2	6.289922719388	1
3	20	12.752484639684	2
3	74	26.413301990875	3
3	92	30.270641397567	4
3	128	37.109686382321	5
3	155	40.505583528373	6
3	182	42.977697502336	7
3	186	43.386390185988	8
3	285	66.590776145486	9
3	325	77.573048968847	10
3	357	82.841767762037	11
3	401	88.717797732339	12
3	433	101.376382582264	13
3	437	101.89218007052	14
3	464	104.773226044218	15
3	472	105.411353227088	16
3	552	112.723640785245	17
3	605	134.774830285976	18
3	650	149.061075797358	19
3	682	153.553040006105	20
3	700	164.789716905536	21
3	722	176.087731429784	22
3	763	181.232482378113	23
3	790	189.184054970085	24
3	794	190.065175836152	25
3	852	198.991769751717	26
4	0	0	0
4	3	6.289922719388	1
4	4	6.289922719388	0
4	21	12.752484639684	1
4	22	12.752484639684	0
4	75	26.413301990875	1
4	76	26.413301990875	0
4	93	30.270641397567	1
4	94	30.270641397567	0
4	129	37.109686382321	1
4	130	37.109686382321	0
4	156	40.505583528373	1
4	157	40.505583528373	0
4	183	42.977697502336	1
4	184	42.977697502336	0
4	187	43.386390185988	1
4	197	43.977697502336	0
4	286	66.590776145486	1
4	287	66.590776145486	0
4	326	77.573048968847	1
4	327	77.573048968847	0
4	358	82.841767762037	1
4	359	82.841767762037	0
4	402	88.717797732339	1
4	403	88.717797732339	0
4	434	101.376382582264	1
4	435	101.376382582264	0
4	438	101.89218007052	1
4	439	102.376382582264	0
4	465	104.773226044218	1
4	466	104.773226044218	0
4	473	105.411353227088	1
4	474	105.773226044218	0
4	553	112.723640785245	1
4	554	112.723640785245	0
4	606	134.774830285976	1
4	607	134.774830285976	0
4	651	149.061075797358	1
4	652	149.061075797358	0
4	683	153.553040006105	1
4	684	153.553040006105	0
4	701	164.789716905536	1
4	702	164.789716905536	0
4	723	176.087731429784	1
4	724	176.087731429784	0
4	764	181.232482378113	1
4	765	181.232482378113	0
4	791	189.184054970085	1
4	792	189.184054970085	0
4	795	190.065175836152	1
4	796	190.184054970085	0
4	853	198.991769751717	1
4	854	198.991769751717	0
5	0	0	0
6	0	0	0
7	0	0	0
8	0	0	0
9	0	0	0
10	0	0	0
11	0	0	0
12	0	0	0
13	0	0	0
14	0	0	0
15	0	0	0
15	24	13.017229484523	1
15	56	18.527637464396	2
15	101	31.680385843815	3
15	137	38.947500948462	4
15	178	42.976135326643	5
15	235	58.540806280897	6
15	249	60.76929926679	7
15	271	64.154514001429	8
15	303	68.700638439185	9
15	339	80.40611684146	10
15	375	84.983294812008	11
15	397	88.475398875119	12
15	480	106.663177476062	13
15	494	106.806156594855	14
15	534	110.020893555642	15
15	574	122.533307199713	16
15	592	133.073797010175	17
15	601	134.13241298583	18
15	646	148.414612791423	19
15	718	175.331165875416	20
15	754	179.663672092803	21
15	802	190.279423910734	22
15	843	197.429447031178	23
16	0	0	0
17	0	0	0
17	25	13.017229484523	1
17	26	13.017229484523	0
17	57	18.527637464396	1
17	58	18.527637464396	0
17	102	31.680385843815	1
17	103	31.680385843815	0
17	138	38.947500948462	1
17	139	38.947500948462	0
17	179	42.976135326643	1
17	180	42.976135326643	0
17	236	58.540806280897	1
17	237	58.540806280897	0
17	250	60.76929926679	1
17	251	60.76929926679	0
17	272	64.154514001429	1
17	273	64.154514001429	0
17	304	68.700638439185	1
17	305	68.700638439185	0
17	340	80.40611684146	1
17	341	80.40611684146	0
17	376	84.983294812008	1
17	377	84.983294812008	0
17	398	88.475398875119	1
17	399	88.475398875119	0
17	481	106.663177476062	1
17	482	106.663177476062	0
17	495	106.806156594855	1
17	496	107.663177476062	0
17	535	110.020893555642	1
17	536	110.020893555642	0
17	575	122.533307199713	1
17	576	122.533307199713	0
17	593	133.073797010175	1
17	594	133.073797010175	0
17	602	134.13241298583	1
17	603	134.13241298583	0
17	647	148.414612791423	1
17	648	148.414612791423	0
17	719	175.331165875416	1
17	720	175.331165875416	0
17	755	179.663672092803	1
17	756	179.663672092803	0
17	803	190.279423910734	1
17	804	190.279423910734	0
17	844	197.429447031178	1
17	845	197.429447031178	0
18	0	0	0
19	0	0	0
20	0	0	0
21	0	0	0
21	34	14.017329484523	1
21	61	19.527737464396	2
21	111	32.680485843815	3
21	147	39.947600948462	4
21	194	43.976235326643	5
21	240	59.540906280897	6
21	258	61.76939926679	7
21	276	65.154614001429	8
21	312	69.700738439185	9
21	348	81.40621684146	10
21	384	85.983394812008	11
21	406	89.475498875119	12
21	498	107.663277476062	13
21	513	108.663277476062	14
21	543	111.020993555642	15
21	579	123.533407199713	16
21	597	134.073897010175	17
21	615	135.13251298583	18
21	655	149.414712791423	19
21	727	176.331265875416	20
21	759	180.663772092803	21
21	817	191.279523910734	22
21	848	198.429547031178	23
22	0	0	0
23	0	0	0
23	35	14.017329484523	1
23	36	14.017329484523	0
23	62	19.527737464396	1
23	63	19.527737464396	0
23	112	32.680485843815	1
23	113	32.680485843815	0
23	148	39.947600948462	1
23	149	39.947600948462	0
23	195	43.976235326643	1
23	196	43.976235326643	0
23	241	59.540906280897	1
23	242	59.540906280897	0
23	259	61.76939926679	1
23	260	61.76939926679	0
23	277	65.154614001429	1
23	278	65.154614001429	0
23	313	69.700738439185	1
23	314	69.700738439185	0
23	349	81.40621684146	1
23	350	81.40621684146	0
23	385	85.983394812008	1
23	386	85.983394812008	0
23	407	89.475498875119	1
23	408	89.475498875119	0
23	499	107.663277476062	1
23	500	107.663277476062	0
23	514	108.663277476062	1
23	515	108.663277476062	0
23	544	111.020993555642	1
23	545	111.020993555642	0
23	580	123.533407199713	1
23	581	123.533407199713	0
23	598	134.073897010175	1
23	599	134.073897010175	0
23	616	135.13251298583	1
23	617	135.13251298583	0
23	656	149.414712791423	1
23	657	149.414712791423	0
23	728	176.331265875416	1
23	729	176.331265875416	0
23	760	180.663772092803	1
23	761	180.663772092803	0
23	818	191.279523910734	1
23	819	191.279523910734	0
23	849	198.429547031178	1
23	850	198.429547031178	0
24	0	0	0
25	0	0	0
26	0	0	0
27	0	0	0
27	44	15.017429484523	1
27	66	20.527837464396	2
27	120	33.680585843815	3
27	160	40.947700948462	4
27	204	44.976335326643	5
27	245	60.541006280897	6
27	263	62.76949926679	7
27	281	66.154714001429	8
27	317	70.700838439185	9
27	353	82.40631684146	10
27	389	86.983494812008	11
27	416	90.475598875119	12
27	517	108.663377476062	13
27	527	109.663377476062	14
27	548	112.021093555642	15
27	584	124.533507199713	16
27	610	135.073997010175	17
27	629	136.13261298583	18
27	665	150.414812791423	19
27	737	177.331365875416	20
27	768	181.663872092803	21
27	831	192.279623910734	22
27	857	199.429647031178	23
28	0	0	0
29	0	0	0
29	45	15.017429484523	1
29	46	15.017429484523	0
29	67	20.527837464396	1
29	68	20.527837464396	0
29	121	33.680585843815	1
29	122	33.680585843815	0
29	161	40.947700948462	1
29	162	40.947700948462	0
29	205	44.976335326643	1
29	206	44.976335326643	0
29	246	60.541006280897	1
29	247	60.541006280897	0
29	264	62.76949926679	1
29	265	62.76949926679	0
29	282	66.154714001429	1
29	283	66.154714001429	0
29	318	70.700838439185	1
29	319	70.700838439185	0
29	354	82.40631684146	1
29	355	82.40631684146	0
29	390	86.983494812008	1
29	391	86.983494812008	0
29	417	90.475598875119	1
29	418	90.475598875119	0
29	518	108.663377476062	1
29	519	108.663377476062	0
29	528	109.663377476062	1
29	529	109.663377476062	0
29	549	112.021093555642	1
29	550	112.021093555642	0
29	585	124.533507199713	1
29	586	124.533507199713	0
29	611	135.073997010175	1
29	612	135.073997010175	0
29	630	136.13261298583	1
29	631	136.13261298583	0
29	666	150.414812791423	1
29	667	150.414812791423	0
29	738	177.331365875416	1
29	739	177.331365875416	0
29	769	181.663872092803	1
29	770	181.663872092803	0
29	832	192.279623910734	1
29	833	192.279623910734	0
29	858	199.429647031178	1
29	859	199.429647031178	0
30	0	0	0
30	18	9.290222719388	3.0003
30	50	15.752784639684	3.0003
30	54	16.017529484523	3.0003
30	72	21.527937464396	3.0003
30	90	29.413601990875	3.0003
30	117	33.270941397567	3.0003
30	126	34.680685843815	3.0003
30	153	40.109986382321	3.0003
30	171	41.947800948462	3.0003
30	191	43.505883528373	3.0003
30	220	45.976435326643	3.0003
30	229	45.977997502336	3.0003
30	233	46.977997502336	3.591607316348
30	255	61.541106280897	3.0003
30	269	63.76959926679	3.0003
30	291	67.154814001429	3.0003
30	309	69.591076145486	3.0003
30	323	71.700938439185	3.0003
30	345	80.573348968847	3.0003
30	363	83.40641684146	3.0003
30	381	85.842067762037	3.0003
30	395	87.983594812008	3.0003
30	427	91.475698875119	3.0003
30	431	91.718097732339	3.0003
30	462	104.376682582264	3.0003
30	470	105.376682582264	3.484502511744
30	509	107.773526044218	3.0003
30	523	108.773526044218	3.36217281713
30	532	109.663477476062	3.0003
30	540	110.663477476062	3.857320881207
30	558	113.021193555642	3.0003
30	572	115.723940785245	3.0003
30	590	125.533607199713	3.0003
30	626	136.074097010175	3.0003
30	640	137.13271298583	3.0003
30	644	137.775130285976	3.0003
30	676	151.414912791423	3.0003
30	680	152.061375797358	3.0003
30	698	156.553340006105	3.0003
30	716	167.790016905536	3.0003
30	748	178.331465875416	3.0003
30	752	179.088031429784	3.0003
30	779	182.663972092803	3.0003
30	788	184.232782378113	3.0003
30	828	192.184354970085	3.0003
30	837	193.184354970085	3.119179133933
30	841	193.279723910734	3.0003
31	0	0	0
31	18	9.290222719388	2
31	50	15.752784639684	2
31	54	16.017529484523	2
31	72	21.527937464396	2
31	90	29.413601990875	2
31	117	33.270941397567	2
31	126	34.680685843815	2
31	153	40.109986382321	2
31	171	41.947800948462	2
31	191	43.505883528373	2
31	220	45.976435326643	2
31	229	45.977997502336	2
31	233	46.977997502336	2
31	255	61.541106280897	2
31	269	63.76959926679	2
31	291	67.154814001429	2
31	309	69.591076145486	2
31	323	71.700938439185	2
31	345	80.573348968847	2
31	363	83.40641684146	2
31	381	85.842067762037	2
31	395	87.983594812008	2
31	427	91.475698875119	2
31	431	91.718097732339	2
31	462	104.376682582264	2
31	470	105.376682582264	2
31	509	107.773526044218	2
31	523	108.773526044218	2
31	532	109.663477476062	2
31	540	110.663477476062	2
31	558	113.021193555642	2
31	572	115.723940785245	2
31	590	125.533607199713	2
31	626	136.074097010175	2
31	640	137.13271298583	2
31	644	137.775130285976	2
31	676	151.414912791423	2
31	680	152.061375797358	2
31	698	156.553340006105	2
31	716	167.790016905536	2
31	748	178.331465875416	2
31	752	179.088031429784	2
31	779	182.663972092803	2
31	788	184.232782378113	2
31	828	192.184354970085	2
31	837	193.184354970085	2
31	841	193.279723910734	2
32	0	0	0
32	18	9.290222719388	0
32	50	15.752784639684	0
32	54	16.017529484523	2
32	72	21.527937464396	2
32	90	29.413601990875	0
32	117	33.270941397567	0
32	126	34.680685843815	2
32	153	40.109986382321	0
32	171	41.947800948462	2
32	191	43.505883528373	0
32	220	45.976435326643	2
32	229	45.977997502336	0
32	233	46.977997502336	0
32	255	61.541106280897	2
32	269	63.76959926679	2
32	291	67.154814001429	2
32	309	69.591076145486	0
32	323	71.700938439185	2
32	345	80.573348968847	0
32	363	83.40641684146	2
32	381	85.842067762037	0
32	395	87.983594812008	2
32	427	91.475698875119	2
32	431	91.718097732339	0
32	462	104.376682582264	0
32	470	105.376682582264	0
32	509	107.773526044218	0
32	523	108.773526044218	0
32	532	109.663477476062	2
32	540	110.663477476062	2
32	558	113.021193555642	2
32	572	115.723940785245	0
32	590	125.533607199713	2
32	626	136.074097010175	2
32	640	137.13271298583	2
32	644	137.775130285976	0
32	676	151.414912791423	2
32	680	152.061375797358	0
32	698	156.553340006105	0
32	716	167.790016905536	0
32	748	178.331465875416	2
32	752	179.088031429784	0
32	779	182.663972092803	2
32	788	184.232782378113	0
32	828	192.184354970085	0
32	837	193.184354970085	0
32	841	193.279723910734	2
33	0	0	0
33	17	9.290222719388	1
33	49	15.752784639684	2
33	53	16.017529484523	3
33	71	21.527937464396	4
33	89	29.413601990875	5
33	116	33.270941397567	6
33	125	34.680685843815	7
33	152	40.109986382321	8
33	170	41.947800948462	9
33	190	43.505883528373	10
33	219	45.976435326643	11
33	228	45.977997502336	12
33	232	46.977997502336	13
33	254	61.541106280897	14
33	268	63.76959926679	15
33	290	67.154814001429	16
33	308	69.591076145486	17
33	322	71.700938439185	18
33	344	80.573348968847	19
33	362	83.40641684146	20
33	380	85.842067762037	21
33	394	87.983594812008	22
33	426	91.475698875119	23
33	430	91.718097732339	24
33	461	104.376682582264	25
33	469	105.376682582264	26
33	508	107.773526044218	27
33	522	108.773526044218	28
33	531	109.663477476062	29
33	539	110.663477476062	30
33	557	113.021193555642	31
33	571	115.723940785245	32
33	589	125.533607199713	33
33	625	136.074097010175	34
33	639	137.13271298583	35
33	643	137.775130285976	36
33	675	151.414912791423	37
33	679	152.061375797358	38
33	697	156.553340006105	39
33	715	167.790016905536	40
33	747	178.331465875416	41
33	751	179.088031429784	42
33	778	182.663972092803	43
33	787	184.232782378113	44
33	827	192.184354970085	45
33	836	193.184354970085	46
33	840	193.279723910734	47
34	0	0	0
35	0	0	0
36	0	0	0
37	0	0	0
38	0	0	0
39	0	0	0
39	12	8.290122719388	1
39	39	14.752684639684	2
39	84	28.413501990875	3
39	106	32.270841397567	4
39	142	39.109886382321	5
39	174	42.505783528373	6
39	214	44.977897502336	7
39	224	45.977897502336	8
39	299	68.590976145486	9
39	335	79.573248968847	10
39	371	84.841967762037	11
39	421	90.717997732339	12
39	451	103.376582582264	13
39	457	104.376582582264	14
39	490	106.773426044218	15
39	504	107.773426044218	16
39	566	114.723840785245	17
39	634	136.775030285976	18
39	670	151.061275797358	19
39	692	155.553240006105	20
39	710	166.789916905536	21
39	742	178.087931429784	22
39	782	183.232682378113	23
39	812	191.184254970085	24
39	823	192.184254970085	25
40	0	0	0
40	13	8.290122719388	1
40	14	8.290122719388	0
40	40	14.752684639684	1
40	41	14.752684639684	0
40	85	28.413501990875	1
40	86	28.413501990875	0
40	107	32.270841397567	1
40	108	32.270841397567	0
40	143	39.109886382321	1
40	144	39.109886382321	0
40	175	42.505783528373	1
40	176	42.505783528373	0
40	215	44.977897502336	1
40	216	44.977897502336	0
40	225	45.977897502336	1
40	226	45.977897502336	0
40	300	68.590976145486	1
40	301	68.590976145486	0
40	336	79.573248968847	1
40	337	79.573248968847	0
40	372	84.841967762037	1
40	373	84.841967762037	0
40	422	90.717997732339	1
40	423	90.717997732339	0
40	452	103.376582582264	1
40	453	103.376582582264	0
40	458	104.376582582264	1
40	459	104.376582582264	0
40	491	106.773426044218	1
40	492	106.773426044218	0
40	505	107.773426044218	1
40	506	107.773426044218	0
40	567	114.723840785245	1
40	568	114.723840785245	0
40	635	136.775030285976	1
40	636	136.775030285976	0
40	671	151.061275797358	1
40	672	151.061275797358	0
40	693	155.553240006105	1
40	694	155.553240006105	0
40	711	166.789916905536	1
40	712	166.789916905536	0
40	743	178.087931429784	1
40	744	178.087931429784	0
40	783	183.232682378113	1
40	784	183.232682378113	0
40	813	191.184254970085	1
40	814	191.184254970085	0
40	824	192.184254970085	1
40	825	192.184254970085	0
41	0	0	0
42	0	0	0
43	0	0	0
44	0	0	0
45	0	0	0
45	7	7.290022719388	1
45	29	13.752584639684	2
45	79	27.413401990875	3
45	97	31.270741397567	4
45	133	38.109786382321	5
45	165	41.505683528373	6
45	199	43.977797502336	7
45	210	44.977797502336	8
45	294	67.590876145486	9
45	330	78.573148968847	10
45	366	83.841867762037	11
45	411	89.717897732339	12
45	441	102.376482582264	13
45	447	103.376482582264	14
45	476	105.773326044218	15
45	486	106.773326044218	16
45	561	113.723740785245	17
45	620	135.774930285976	18
45	660	150.061175797358	19
45	687	154.553140006105	20
45	705	165.789816905536	21
45	732	177.087831429784	22
45	773	182.232582378113	23
45	798	190.184154970085	24
45	808	191.184154970085	25
45	862	199.991869751717	26
46	0	0	0
46	8	7.290022719388	1
46	9	7.290022719388	0
46	30	13.752584639684	1
46	31	13.752584639684	0
46	80	27.413401990875	1
46	81	27.413401990875	0
46	98	31.270741397567	1
46	99	31.270741397567	0
46	134	38.109786382321	1
46	135	38.109786382321	0
46	166	41.505683528373	1
46	167	41.505683528373	0
46	200	43.977797502336	1
46	201	43.977797502336	0
46	211	44.977797502336	1
46	212	44.977797502336	0
46	295	67.590876145486	1
46	296	67.590876145486	0
46	331	78.573148968847	1
46	332	78.573148968847	0
46	367	83.841867762037	1
46	368	83.841867762037	0
46	412	89.717897732339	1
46	413	89.717897732339	0
46	442	102.376482582264	1
46	443	102.376482582264	0
46	448	103.376482582264	1
46	449	103.376482582264	0
46	477	105.773326044218	1
46	478	105.773326044218	0
46	487	106.773326044218	1
46	488	106.773326044218	0
46	562	113.723740785245	1
46	563	113.723740785245	0
46	621	135.774930285976	1
46	622	135.774930285976	0
46	661	150.061175797358	1
46	662	150.061175797358	0
46	688	154.553140006105	1
46	689	154.553140006105	0
46	706	165.789816905536	1
46	707	165.789816905536	0
46	733	177.087831429784	1
46	734	177.087831429784	0
46	774	182.232582378113	1
46	775	182.232582378113	0
46	799	190.184154970085	1
46	800	190.184154970085	0
46	809	191.184154970085	1
46	810	191.184154970085	0
46	863	199.991869751717	1
46	864	199.991869751717	0
47	0	0	0

